#
# Tell lammps that you will be modifying internal data structures (adding atoms)
#
atom_modify map array
#
# Read in the final state of the initialization simulation (will still need to define fixed layer)
#
read_restart state_1000K.restart
Reading restart file ...
  restart file = 29 Sep 2021, LAMMPS = 29 Sep 2021
  restoring atom style atomic from restart
  orthogonal box = (0.0000000 0.0000000 -13.788800) to (34.472000 34.472000 103.41600)
  pair style bop stores no restart info
  1250 atoms
  read_restart CPU = 0.010 seconds
#
# Define a bottom region of the slab (of thickness 4 Angstroms) in which
# the atomis will be fixed (i.e. will always experience a zero force)
#
variable thickness equal 4.0
variable sxlo equal xlo
variable sxhi equal xhi
variable sylo equal ylo
variable syhi equal yhi
variable szlo equal zlo
variable szhi equal zlo+4
region layer block 0 34.472 0 34.472 -13.7888 -9.7888 units box
group fixedlayer region layer
150 atoms in group fixedlayer
#
# Define embedded atom potential for Tungsten
#
pair_style    bop
pair_coeff  * * CdTe1.bop.table Cd Te
Reading BOP potential file CdTe1.bop.table with DATE: 2012-06-25
#
# Set the initial velocities to zero
#
neighbor        0.3 bin
neigh_modify    delay 0 every 10 check no
#
# Define outputed variables
#
thermo_style custom step temp etotal press lx ly lz vol
thermo 100
#
# Set the forces within the fixed layer to always be zero
#
fix 1 fixedlayer setforce 0.0 0.0 0.0
#
# Will perform a finite temperature simulation (fixed volume at 1000K)
#
fix 2 all nvt temp 1000.0 1000.0 0.01
  fix style: nvt, fix ID: 2
# fix 2 all npt temp 1000.0 1000.0 0.01 iso 0.0 0.0 0.01
#
# Output structure every 10 steps (this file will rapidly grow in size)
#
dump eqiul all atom 10 dump_deposit_sa-1.atom
#
# Will perform twenty deposits (atoms will be created with zero velocity
# and placed nearer enough such that they are attracted to the surface)
#
# This is done via a loop where each cycle represent creation of an atom
# and 1000 md steps
#
# Also, to keep track of the ID of the newly created atom, introduce a variable
# n that automatically updates with increasing number of atoms
#
variable n equal atoms
variable i loop 1 20
label loop
#
# Create depositing atom (placed randomly within the x-y plane, z distance is fixed to 45)
#
variable seed equal 12345
variable newx1 equal random(xlo,xhi,12345)
variable newy1 equal random(ylo,yhi,12345)
create_atoms 1 single 29.9890231223106 0.359402495384216 35.0
Created 1 atoms
set atom 1251 vx 0.0 vy 0.0 vz -36.395
Setting atom values ...
  1 settings made for vx
  1 settings made for vy
  1 settings made for vz
variable newx2 equal random(xlo,xhi,12345)
variable newy2 equal random(ylo,yhi,12345)
create_atoms 2 single 10.119870452404 0.711599188327789 35.0
Created 1 atoms
set atom 1252 vx 0.0 vy 0.0 vz -10.802
Setting atom values ...
  1 settings made for vx
  1 settings made for vy
  1 settings made for vz
run 1000
All restart file global fix info was re-assigned
  update every 10 steps, delay 0 steps, check no
Step Temp TotEng Press Lx Ly Lz Volume
10065    980.64913   -2278.8898     236.6668       34.472       34.472     117.2048    139276.67
Averages over the last 6 of 12 rows, steps 10600 to 11065:
Temp TotEng Press Lx Ly Lz Volume
999.485 -2270.4 636.815 34.472 34.472 117.205 139277
Loop time of 19.0861 on 1 procs for 1000 steps with 1252 atoms

#
#
#
next i
jump in_deposit_sa-1_CdTe.lammps loop
#
# Create depositing atom (placed randomly within the x-y plane, z distance is fixed to 45)
#
variable seed equal 12345
variable newx1 equal random(xlo,xhi,12345)
variable newy1 equal random(ylo,yhi,12345)
create_atoms 1 single 2.64330695438385 10.4331882762909 35.0
Created 1 atoms
set atom 1253 vx 0.0 vy 0.0 vz -36.395
Setting atom values ...
  1 settings made for vx
  1 settings made for vy
  1 settings made for vz
variable newx2 equal random(xlo,xhi,12345)
variable newy2 equal random(ylo,yhi,12345)
create_atoms 2 single 22.2085317397118 20.7369309997559 35.0
Created 1 atoms
set atom 1254 vx 0.0 vy 0.0 vz -10.802
Setting atom values ...
  1 settings made for vx
  1 settings made for vy
  1 settings made for vz
run 1000
Step Temp TotEng Press Lx Ly Lz Volume
11065    1030.1805   -2266.5802    710.55643       34.472       34.472     117.2048    139276.67
Averages over the last 6 of 12 rows, steps 11600 to 12065:
Temp TotEng Press Lx Ly Lz Volume
993.714 -2272.67 -332.576 34.472 34.472 117.205 139277
Loop time of 20.1348 on 1 procs for 1000 steps with 1254 atoms

#
#
#
next i
jump in_deposit_sa-1_CdTe.lammps loop
#
# Create depositing atom (placed randomly within the x-y plane, z distance is fixed to 45)
#
variable seed equal 12345
variable newx1 equal random(xlo,xhi,12345)
variable newy1 equal random(ylo,yhi,12345)
create_atoms 1 single 13.4378352999687 19.0770486211777 35.0
Created 1 atoms
set atom 1255 vx 0.0 vy 0.0 vz -36.395
Setting atom values ...
  1 settings made for vx
  1 settings made for vy
  1 settings made for vz
variable newx2 equal random(xlo,xhi,12345)
variable newy2 equal random(ylo,yhi,12345)
create_atoms 2 single 1.59430485057831 12.6608578886986 35.0
Created 1 atoms
set atom 1256 vx 0.0 vy 0.0 vz -10.802
Setting atom values ...
  1 settings made for vx
  1 settings made for vy
  1 settings made for vz
run 1000
Step Temp TotEng Press Lx Ly Lz Volume
12065    1043.2616   -2259.7354   -595.20016       34.472       34.472     117.2048    139276.67
Averages over the last 6 of 12 rows, steps 12600 to 13065:
Temp TotEng Press Lx Ly Lz Volume
1001.84 -2271.69 -728.853 34.472 34.472 117.205 139277
Loop time of 19.8281 on 1 procs for 1000 steps with 1256 atoms

#
#
#
next i
jump in_deposit_sa-1_CdTe.lammps loop
#
# Create depositing atom (placed randomly within the x-y plane, z distance is fixed to 45)
#
variable seed equal 12345
variable newx1 equal random(xlo,xhi,12345)
variable newy1 equal random(ylo,yhi,12345)
create_atoms 1 single 19.8984648962021 21.5908504366875 35.0
Created 1 atoms
set atom 1257 vx 0.0 vy 0.0 vz -36.395
Setting atom values ...
  1 settings made for vx
  1 settings made for vy
  1 settings made for vz
variable newx2 equal random(xlo,xhi,12345)
variable newy2 equal random(ylo,yhi,12345)
create_atoms 2 single 14.3945303964615 21.7460392169952 35.0
Created 1 atoms
set atom 1258 vx 0.0 vy 0.0 vz -10.802
Setting atom values ...
  1 settings made for vx
  1 settings made for vy
  1 settings made for vz
run 1000
Step Temp TotEng Press Lx Ly Lz Volume
13065    1066.5022   -2264.1773   -930.68229       34.472       34.472     117.2048    139276.67
Averages over the last 6 of 12 rows, steps 13600 to 14065:
Temp TotEng Press Lx Ly Lz Volume
1000.38 -2268.56 -754.227 34.472 34.472 117.205 139277
Loop time of 21.583 on 1 procs for 1000 steps with 1258 atoms

#
#
#
next i
jump in_deposit_sa-1_CdTe.lammps loop
#
# Create depositing atom (placed randomly within the x-y plane, z distance is fixed to 45)
#
variable seed equal 12345
variable newx1 equal random(xlo,xhi,12345)
variable newy1 equal random(ylo,yhi,12345)
create_atoms 1 single 15.6271787552834 10.8756578321457 35.0
Created 1 atoms
set atom 1259 vx 0.0 vy 0.0 vz -36.395
Setting atom values ...
  1 settings made for vx
  1 settings made for vy
  1 settings made for vz
variable newx2 equal random(xlo,xhi,12345)
variable newy2 equal random(ylo,yhi,12345)
create_atoms 2 single 17.8774006595612 1.97288994407654 35.0
Created 1 atoms
set atom 1260 vx 0.0 vy 0.0 vz -10.802
Setting atom values ...
  1 settings made for vx
  1 settings made for vy
  1 settings made for vz
run 1000
Step Temp TotEng Press Lx Ly Lz Volume
14065    1053.2659   -2260.7542   -639.18088       34.472       34.472     117.2048    139276.67
Averages over the last 6 of 12 rows, steps 14600 to 15065:
Temp TotEng Press Lx Ly Lz Volume
996.768 -2273.96 99.0801 34.472 34.472 117.205 139277
Loop time of 21.6822 on 1 procs for 1000 steps with 1260 atoms

#
#
#
next i
jump in_deposit_sa-1_CdTe.lammps loop
#
# Create depositing atom (placed randomly within the x-y plane, z distance is fixed to 45)
#
variable seed equal 12345
variable newx1 equal random(xlo,xhi,12345)
variable newy1 equal random(ylo,yhi,12345)
create_atoms 1 single 9.57577380943298 10.026301864624 35.0
Created 1 atoms
set atom 1261 vx 0.0 vy 0.0 vz -36.395
Setting atom values ...
  1 settings made for vx
  1 settings made for vy
  1 settings made for vz
variable newx2 equal random(xlo,xhi,12345)
variable newy2 equal random(ylo,yhi,12345)
create_atoms 2 single 8.23385080242157 1.5996860871315 35.0
Created 1 atoms
set atom 1262 vx 0.0 vy 0.0 vz -10.802
Setting atom values ...
  1 settings made for vx
  1 settings made for vy
  1 settings made for vz
run 1000
Step Temp TotEng Press Lx Ly Lz Volume
15065    1066.5055    -2266.333    80.769808       34.472       34.472     117.2048    139276.67
Averages over the last 6 of 12 rows, steps 15600 to 16065:
Temp TotEng Press Lx Ly Lz Volume
1003.73 -2279.73 356.599 34.472 34.472 117.205 139277
Loop time of 21.1503 on 1 procs for 1000 steps with 1262 atoms

#
#
#
next i
jump in_deposit_sa-1_CdTe.lammps loop
#
# Create depositing atom (placed randomly within the x-y plane, z distance is fixed to 45)
#
variable seed equal 12345
variable newx1 equal random(xlo,xhi,12345)
variable newy1 equal random(ylo,yhi,12345)
create_atoms 1 single 20.8406353797913 9.29087031173706 35.0
Created 1 atoms
set atom 1263 vx 0.0 vy 0.0 vz -36.395
Setting atom values ...
  1 settings made for vx
  1 settings made for vy
  1 settings made for vz
variable newx2 equal random(xlo,xhi,12345)
variable newy2 equal random(ylo,yhi,12345)
create_atoms 2 single 7.62159799385071 13.7739026660919 35.0
Created 1 atoms
set atom 1264 vx 0.0 vy 0.0 vz -10.802
Setting atom values ...
  1 settings made for vx
  1 settings made for vy
  1 settings made for vz
run 1000
Step Temp TotEng Press Lx Ly Lz Volume
16065    1039.4746   -2281.7776    341.50217       34.472       34.472     117.2048    139276.67
Averages over the last 6 of 12 rows, steps 16600 to 17065:
Temp TotEng Press Lx Ly Lz Volume
1002.23 -2274.68 -9.76503 34.472 34.472 117.205 139277
Loop time of 20.7347 on 1 procs for 1000 steps with 1264 atoms

#
#
#
next i
jump in_deposit_sa-1_CdTe.lammps loop
#
# Create depositing atom (placed randomly within the x-y plane, z distance is fixed to 45)
#
variable seed equal 12345
variable newx1 equal random(xlo,xhi,12345)
variable newy1 equal random(ylo,yhi,12345)
create_atoms 1 single 4.59060982751846 25.4028082795143 35.0
Created 1 atoms
set atom 1265 vx 0.0 vy 0.0 vz -36.395
Setting atom values ...
  1 settings made for vx
  1 settings made for vy
  1 settings made for vz
variable newx2 equal random(xlo,xhi,12345)
variable newy2 equal random(ylo,yhi,12345)
create_atoms 2 single 0.378106350421906 10.4963535966873 35.0
Created 1 atoms
set atom 1266 vx 0.0 vy 0.0 vz -10.802
Setting atom values ...
  1 settings made for vx
  1 settings made for vy
  1 settings made for vz
run 1000
Step Temp TotEng Press Lx Ly Lz Volume
17065    1102.8916   -2256.5945   -170.56058       34.472       34.472     117.2048    139276.67
Averages over the last 6 of 12 rows, steps 17600 to 18065:
Temp TotEng Press Lx Ly Lz Volume
992.725 -2284.28 -599.052 34.472 34.472 117.205 139277
Loop time of 20.3643 on 1 procs for 1000 steps with 1266 atoms

#
#
#
next i
jump in_deposit_sa-1_CdTe.lammps loop
#
# Create depositing atom (placed randomly within the x-y plane, z distance is fixed to 45)
#
variable seed equal 12345
variable newx1 equal random(xlo,xhi,12345)
variable newy1 equal random(ylo,yhi,12345)
create_atoms 1 single 4.99889137458801 32.0248051128387 35.0
Created 1 atoms
set atom 1267 vx 0.0 vy 0.0 vz -36.395
Setting atom values ...
  1 settings made for vx
  1 settings made for vy
  1 settings made for vz
variable newx2 equal random(xlo,xhi,12345)
variable newy2 equal random(ylo,yhi,12345)
create_atoms 2 single 26.9212600908279 29.8017934856415 35.0
Created 1 atoms
set atom 1268 vx 0.0 vy 0.0 vz -10.802
Setting atom values ...
  1 settings made for vx
  1 settings made for vy
  1 settings made for vz
run 1000
Step Temp TotEng Press Lx Ly Lz Volume
18065    1047.7703    -2274.069   -485.15447       34.472       34.472     117.2048    139276.67
Averages over the last 6 of 12 rows, steps 18600 to 19065:
Temp TotEng Press Lx Ly Lz Volume
1004.19 -2275.09 -759.587 34.472 34.472 117.205 139277
Loop time of 20.1055 on 1 procs for 1000 steps with 1268 atoms

#
#
#
next i
jump in_deposit_sa-1_CdTe.lammps loop
#
# Create depositing atom (placed randomly within the x-y plane, z distance is fixed to 45)
#
variable seed equal 12345
variable newx1 equal random(xlo,xhi,12345)
variable newy1 equal random(ylo,yhi,12345)
create_atoms 1 single 4.11488509273529 22.8468215966225 35.0
Created 1 atoms
set atom 1269 vx 0.0 vy 0.0 vz -36.395
Setting atom values ...
  1 settings made for vx
  1 settings made for vy
  1 settings made for vz
variable newx2 equal random(xlo,xhi,12345)
variable newy2 equal random(ylo,yhi,12345)
create_atoms 2 single 14.8811408858299 6.20979493522644 35.0
Created 1 atoms
set atom 1270 vx 0.0 vy 0.0 vz -10.802
Setting atom values ...
  1 settings made for vx
  1 settings made for vy
  1 settings made for vz
run 1000
Step Temp TotEng Press Lx Ly Lz Volume
19065     1029.926   -2269.0395   -519.08775       34.472       34.472     117.2048    139276.67
Averages over the last 6 of 12 rows, steps 19600 to 20065:
Temp TotEng Press Lx Ly Lz Volume
1005.13 -2278.04 -36.3444 34.472 34.472 117.205 139277
Loop time of 21.1916 on 1 procs for 1000 steps with 1270 atoms

#
#
#
next i
jump in_deposit_sa-1_CdTe.lammps loop
#
# Create depositing atom (placed randomly within the x-y plane, z distance is fixed to 45)
#
variable seed equal 12345
variable newx1 equal random(xlo,xhi,12345)
variable newy1 equal random(ylo,yhi,12345)
create_atoms 1 single 14.225932700634 22.4771374258995 35.0
Created 1 atoms
set atom 1271 vx 0.0 vy 0.0 vz -36.395
Setting atom values ...
  1 settings made for vx
  1 settings made for vy
  1 settings made for vz
variable newx2 equal random(xlo,xhi,12345)
variable newy2 equal random(ylo,yhi,12345)
create_atoms 2 single 10.3501027235985 16.4906073036194 35.0
Created 1 atoms
set atom 1272 vx 0.0 vy 0.0 vz -10.802
Setting atom values ...
  1 settings made for vx
  1 settings made for vy
  1 settings made for vz
run 1000
Step Temp TotEng Press Lx Ly Lz Volume
20065    1036.7208   -2272.9557     131.6834       34.472       34.472     117.2048    139276.67
Averages over the last 6 of 12 rows, steps 20600 to 21065:
Temp TotEng Press Lx Ly Lz Volume
1012.27 -2278.3 189.458 34.472 34.472 117.205 139277
Loop time of 21.1585 on 1 procs for 1000 steps with 1272 atoms

#
#
#
next i
jump in_deposit_sa-1_CdTe.lammps loop
#
# Create depositing atom (placed randomly within the x-y plane, z distance is fixed to 45)
#
variable seed equal 12345
variable newx1 equal random(xlo,xhi,12345)
variable newy1 equal random(ylo,yhi,12345)
create_atoms 1 single 18.5977692704201 5.5363123254776 35.0
Created 1 atoms
set atom 1273 vx 0.0 vy 0.0 vz -36.395
Setting atom values ...
  1 settings made for vx
  1 settings made for vy
  1 settings made for vz
variable newx2 equal random(xlo,xhi,12345)
variable newy2 equal random(ylo,yhi,12345)
create_atoms 2 single 17.561867878437 8.24994519948959 35.0
Created 1 atoms
set atom 1274 vx 0.0 vy 0.0 vz -10.802
Setting atom values ...
  1 settings made for vx
  1 settings made for vy
  1 settings made for vz
run 1000
Step Temp TotEng Press Lx Ly Lz Volume
21065    1102.3359   -2259.9841    436.73671       34.472       34.472     117.2048    139276.67
Averages over the last 6 of 12 rows, steps 21600 to 22065:
Temp TotEng Press Lx Ly Lz Volume
1001.81 -2279.33 226.31 34.472 34.472 117.205 139277
Loop time of 21.7138 on 1 procs for 1000 steps with 1274 atoms

#
#
#
next i
jump in_deposit_sa-1_CdTe.lammps loop
#
# Create depositing atom (placed randomly within the x-y plane, z distance is fixed to 45)
#
variable seed equal 12345
variable newx1 equal random(xlo,xhi,12345)
variable newy1 equal random(ylo,yhi,12345)
create_atoms 1 single 9.83015075826645 16.311857378006 35.0
Created 1 atoms
set atom 1275 vx 0.0 vy 0.0 vz -36.395
Setting atom values ...
  1 settings made for vx
  1 settings made for vy
  1 settings made for vz
variable newx2 equal random(xlo,xhi,12345)
variable newy2 equal random(ylo,yhi,12345)
create_atoms 2 single 10.7752019190788 5.65537346839905 35.0
Created 1 atoms
set atom 1276 vx 0.0 vy 0.0 vz -10.802
Setting atom values ...
  1 settings made for vx
  1 settings made for vy
  1 settings made for vz
run 1000
Step Temp TotEng Press Lx Ly Lz Volume
22065    1015.1875   -2275.2802    162.00648       34.472       34.472     117.2048    139276.67
Averages over the last 6 of 12 rows, steps 22600 to 23065:
Temp TotEng Press Lx Ly Lz Volume
1003.93 -2276.13 -475.471 34.472 34.472 117.205 139277
Loop time of 21.8842 on 1 procs for 1000 steps with 1276 atoms

#
#
#
next i
jump in_deposit_sa-1_CdTe.lammps loop
#
# Create depositing atom (placed randomly within the x-y plane, z distance is fixed to 45)
#
variable seed equal 12345
variable newx1 equal random(xlo,xhi,12345)
variable newy1 equal random(ylo,yhi,12345)
create_atoms 1 single 32.7125904288292 14.8708222260475 35.0
Created 1 atoms
set atom 1277 vx 0.0 vy 0.0 vz -36.395
Setting atom values ...
  1 settings made for vx
  1 settings made for vy
  1 settings made for vz
variable newx2 equal random(xlo,xhi,12345)
variable newy2 equal random(ylo,yhi,12345)
create_atoms 2 single 19.192811984539 26.0177116398811 35.0
Created 1 atoms
set atom 1278 vx 0.0 vy 0.0 vz -10.802
Setting atom values ...
  1 settings made for vx
  1 settings made for vy
  1 settings made for vz
run 1000
Step Temp TotEng Press Lx Ly Lz Volume
23065    1022.5538   -2272.7948   -516.96369       34.472       34.472     117.2048    139276.67
Averages over the last 6 of 12 rows, steps 23600 to 24065:
Temp TotEng Press Lx Ly Lz Volume
998.155 -2275.54 -690.953 34.472 34.472 117.205 139277
Loop time of 22.3909 on 1 procs for 1000 steps with 1278 atoms

#
#
#
next i
jump in_deposit_sa-1_CdTe.lammps loop
#
# Create depositing atom (placed randomly within the x-y plane, z distance is fixed to 45)
#
variable seed equal 12345
variable newx1 equal random(xlo,xhi,12345)
variable newy1 equal random(ylo,yhi,12345)
create_atoms 1 single 19.3086349339485 31.9799553108215 35.0
Created 1 atoms
set atom 1279 vx 0.0 vy 0.0 vz -36.395
Setting atom values ...
  1 settings made for vx
  1 settings made for vy
  1 settings made for vz
variable newx2 equal random(xlo,xhi,12345)
variable newy2 equal random(ylo,yhi,12345)
create_atoms 2 single 29.5647725143433 7.30574673557282 35.0
Created 1 atoms
set atom 1280 vx 0.0 vy 0.0 vz -10.802
Setting atom values ...
  1 settings made for vx
  1 settings made for vy
  1 settings made for vz
run 1000
Step Temp TotEng Press Lx Ly Lz Volume
24065    1079.2521   -2262.8987   -601.99412       34.472       34.472     117.2048    139276.67
Averages over the last 6 of 12 rows, steps 24600 to 25065:
Temp TotEng Press Lx Ly Lz Volume
995.201 -2285.35 -371.737 34.472 34.472 117.205 139277
Loop time of 22.5311 on 1 procs for 1000 steps with 1280 atoms

#
#
#
next i
jump in_deposit_sa-1_CdTe.lammps loop
#
# Create depositing atom (placed randomly within the x-y plane, z distance is fixed to 45)
#
variable seed equal 12345
variable newx1 equal random(xlo,xhi,12345)
variable newy1 equal random(ylo,yhi,12345)
create_atoms 1 single 15.5015199985504 30.7755938873291 35.0
Created 1 atoms
set atom 1281 vx 0.0 vy 0.0 vz -36.395
Setting atom values ...
  1 settings made for vx
  1 settings made for vy
  1 settings made for vz
variable newx2 equal random(xlo,xhi,12345)
variable newy2 equal random(ylo,yhi,12345)
create_atoms 2 single 25.7221607317924 22.0439242544174 35.0
Created 1 atoms
set atom 1282 vx 0.0 vy 0.0 vz -10.802
Setting atom values ...
  1 settings made for vx
  1 settings made for vy
  1 settings made for vz
run 1000
Step Temp TotEng Press Lx Ly Lz Volume
25065    1074.5191    -2271.282   -253.32303       34.472       34.472     117.2048    139276.67
Averages over the last 6 of 12 rows, steps 25600 to 26065:
Temp TotEng Press Lx Ly Lz Volume
1005.67 -2285.34 158.818 34.472 34.472 117.205 139277
Loop time of 21.8847 on 1 procs for 1000 steps with 1282 atoms

#
#
#
next i
jump in_deposit_sa-1_CdTe.lammps loop
#
# Create depositing atom (placed randomly within the x-y plane, z distance is fixed to 45)
#
variable seed equal 12345
variable newx1 equal random(xlo,xhi,12345)
variable newy1 equal random(ylo,yhi,12345)
create_atoms 1 single 4.4503524889946 26.9180034050941 35.0
Created 1 atoms
set atom 1283 vx 0.0 vy 0.0 vz -36.395
Setting atom values ...
  1 settings made for vx
  1 settings made for vy
  1 settings made for vz
variable newx2 equal random(xlo,xhi,12345)
variable newy2 equal random(ylo,yhi,12345)
create_atoms 2 single 12.0962862467766 14.3712137594223 35.0
Created 1 atoms
set atom 1284 vx 0.0 vy 0.0 vz -10.802
Setting atom values ...
  1 settings made for vx
  1 settings made for vy
  1 settings made for vz
run 1000
Step Temp TotEng Press Lx Ly Lz Volume
26065    1064.7617   -2274.9934    333.67568       34.472       34.472     117.2048    139276.67
Averages over the last 6 of 12 rows, steps 26600 to 27065:
Temp TotEng Press Lx Ly Lz Volume
1008.42 -2290.3 432.767 34.472 34.472 117.205 139277
Loop time of 21.3422 on 1 procs for 1000 steps with 1284 atoms

#
#
#
next i
jump in_deposit_sa-1_CdTe.lammps loop
#
# Create depositing atom (placed randomly within the x-y plane, z distance is fixed to 45)
#
variable seed equal 12345
variable newx1 equal random(xlo,xhi,12345)
variable newy1 equal random(ylo,yhi,12345)
create_atoms 1 single 26.5142072491646 7.35179031324387 35.0
Created 1 atoms
set atom 1285 vx 0.0 vy 0.0 vz -36.395
Setting atom values ...
  1 settings made for vx
  1 settings made for vy
  1 settings made for vz
variable newx2 equal random(xlo,xhi,12345)
variable newy2 equal random(ylo,yhi,12345)
create_atoms 2 single 25.4063813877106 22.0537271866798 35.0
Created 1 atoms
set atom 1286 vx 0.0 vy 0.0 vz -10.802
Setting atom values ...
  1 settings made for vx
  1 settings made for vy
  1 settings made for vz
run 1000
Step Temp TotEng Press Lx Ly Lz Volume
27065    1029.4073   -2291.8914    381.57498       34.472       34.472     117.2048    139276.67
Averages over the last 6 of 12 rows, steps 27600 to 28065:
Temp TotEng Press Lx Ly Lz Volume
1010.43 -2288.34 -455.995 34.472 34.472 117.205 139277
Loop time of 21.3008 on 1 procs for 1000 steps with 1286 atoms

#
#
#
next i
jump in_deposit_sa-1_CdTe.lammps loop
#
# Create depositing atom (placed randomly within the x-y plane, z distance is fixed to 45)
#
variable seed equal 12345
variable newx1 equal random(xlo,xhi,12345)
variable newy1 equal random(ylo,yhi,12345)
create_atoms 1 single 10.5680171203613 4.78330699777603 35.0
Created 1 atoms
set atom 1287 vx 0.0 vy 0.0 vz -36.395
Setting atom values ...
  1 settings made for vx
  1 settings made for vy
  1 settings made for vz
variable newx2 equal random(xlo,xhi,12345)
variable newy2 equal random(ylo,yhi,12345)
create_atoms 2 single 7.95175401306152 18.8742485337257 35.0
Created 1 atoms
set atom 1288 vx 0.0 vy 0.0 vz -10.802
Setting atom values ...
  1 settings made for vx
  1 settings made for vy
  1 settings made for vz
run 1000
Step Temp TotEng Press Lx Ly Lz Volume
28065    1086.1106   -2278.7174   -525.10469       34.472       34.472     117.2048    139276.67
Averages over the last 6 of 12 rows, steps 28600 to 29065:
Temp TotEng Press Lx Ly Lz Volume
1000.48 -2293.61 -657.034 34.472 34.472 117.205 139277
Loop time of 22.1134 on 1 procs for 1000 steps with 1288 atoms

#
#
#
next i
jump in_deposit_sa-1_CdTe.lammps loop
#
# Create depositing atom (placed randomly within the x-y plane, z distance is fixed to 45)
#
variable seed equal 12345
variable newx1 equal random(xlo,xhi,12345)
variable newy1 equal random(ylo,yhi,12345)
create_atoms 1 single 12.3188524646759 28.9109183707237 35.0
Created 1 atoms
set atom 1289 vx 0.0 vy 0.0 vz -36.395
Setting atom values ...
  1 settings made for vx
  1 settings made for vy
  1 settings made for vz
variable newx2 equal random(xlo,xhi,12345)
variable newy2 equal random(ylo,yhi,12345)
create_atoms 2 single 30.3401041178703 25.9745713410378 35.0
Created 1 atoms
set atom 1290 vx 0.0 vy 0.0 vz -10.802
Setting atom values ...
  1 settings made for vx
  1 settings made for vy
  1 settings made for vz
run 1000
Step Temp TotEng Press Lx Ly Lz Volume
29065    1083.0642   -2280.5848    -682.7154       34.472       34.472     117.2048    139276.67
Averages over the last 6 of 12 rows, steps 29600 to 30065:
Temp TotEng Press Lx Ly Lz Volume
996.816 -2294.37 -368.445 34.472 34.472 117.205 139277
Loop time of 22.3141 on 1 procs for 1000 steps with 1290 atoms

#
#
#
next i
jump in_deposit_sa-1_CdTe.lammps loop
#
# Save state of simulation
#
write_restart deposited_state_1000K_sa-1.restart
System init for write_restart ...
