#
# Tell lammps that you will be modifying internal data structures (adding atoms)
#
atom_modify map array
#
# Read in the final state of the initialization simulation (will still need to define fixed layer)
#
read_restart state_1000K.restart
Reading restart file ...
  restart file = 29 Sep 2021, LAMMPS = 29 Sep 2021
  restoring atom style atomic from restart
  orthogonal box = (0.0000000 0.0000000 -13.788800) to (34.472000 34.472000 103.41600)
  pair style bop stores no restart info
  1250 atoms
  read_restart CPU = 0.006 seconds
#
# Define a bottom region of the slab (of thickness 4 Angstroms) in which
# the atomis will be fixed (i.e. will always experience a zero force)
#
variable thickness equal 4.0
variable sxlo equal xlo
variable sxhi equal xhi
variable sylo equal ylo
variable syhi equal yhi
variable szlo equal zlo
variable szhi equal zlo+4
region layer block 0 34.472 0 34.472 -13.7888 -9.7888 units box
group fixedlayer region layer
150 atoms in group fixedlayer
#
# Define embedded atom potential for Tungsten
#
pair_style    bop
pair_coeff  * * CdTe1.bop.table Cd Te
Reading BOP potential file CdTe1.bop.table with DATE: 2012-06-25
#
# Set the initial velocities to zero
#
neighbor        0.3 bin
neigh_modify    delay 0 every 10 check no
#
# Define outputed variables
#
thermo_style custom step temp etotal press lx ly lz vol
thermo 100
#
# Set the forces within the fixed layer to always be zero
#
fix 1 fixedlayer setforce 0.0 0.0 0.0
#
# Will perform a finite temperature simulation (fixed volume at 1000K)
#
fix 2 all nvt temp 1000.0 1000.0 0.01
  fix style: nvt, fix ID: 2
# fix 2 all npt temp 1000.0 1000.0 0.01 iso 0.0 0.0 0.01
#
# Output structure every 10 steps (this file will rapidly grow in size)
#
dump eqiul all atom 10 dump_deposit_sa-2_1000K.atom
#
# Will perform twenty deposits (atoms will be created with zero velocity
# and placed nearer enough such that they are attracted to the surface)
#
# This is done via a loop where each cycle represent creation of an atom
# and 1000 md steps
#
# Also, to keep track of the ID of the newly created atom, introduce a variable
# n that automatically updates with increasing number of atoms
#
# variable i loop 1 50
variable i loop 1 2
label loop
variable n equal atoms
#
# Create depositing atom (placed randomly within the x-y plane, z distance is fixed to 45)
#
variable seed equal 12345
variable newx1 equal random(xlo,xhi,12345)
variable newy1 equal random(ylo,yhi,12345)
create_atoms 1 single 29.9890231223106 0.359402495384216 35.0
Created 1 atoms
set atom 1251 vx 0.0 vy 0.0 vz -13.1
Setting atom values ...
  1 settings made for vx
  1 settings made for vy
  1 settings made for vz
variable newx2 equal random(xlo,xhi,12345)
variable newy2 equal random(ylo,yhi,12345)
create_atoms 2 single 10.119870452404 0.711599188327789 35.0
Created 1 atoms
set atom 1252 vx 0.0 vy 0.0 vz -3.89
Setting atom values ...
  1 settings made for vx
  1 settings made for vy
  1 settings made for vz
run 1000
All restart file global fix info was re-assigned
  update every 10 steps, delay 0 steps, check no
Step Temp TotEng Press Lx Ly Lz Volume
10065      934.961   -2286.2777    180.00816       34.472       34.472     117.2048    139276.67
Averages over the last 6 of 12 rows, steps 10600 to 11065:
Temp TotEng Press Lx Ly Lz Volume
1004.98 -2271.73 508.276 34.472 34.472 117.205 139277
Loop time of 20.8432 on 7 procs for 1000 steps with 1252 atoms

#
#
#
next i
#
jump in_deposit_sa-2_1000K_CdTe.lammps loop
variable n equal atoms
#
# Create depositing atom (placed randomly within the x-y plane, z distance is fixed to 45)
#
variable seed equal 12345
variable newx1 equal random(xlo,xhi,12345)
variable newy1 equal random(ylo,yhi,12345)
create_atoms 1 single 2.64330695438385 10.4331882762909 35.0
Created 1 atoms
set atom 1253 vx 0.0 vy 0.0 vz -13.1
Setting atom values ...
  1 settings made for vx
  1 settings made for vy
  1 settings made for vz
variable newx2 equal random(xlo,xhi,12345)
variable newy2 equal random(ylo,yhi,12345)
create_atoms 2 single 22.2085317397118 20.7369309997559 35.0
Created 1 atoms
set atom 1254 vx 0.0 vy 0.0 vz -3.89
Setting atom values ...
  1 settings made for vx
  1 settings made for vy
  1 settings made for vz
run 1000
Step Temp TotEng Press Lx Ly Lz Volume
11065    1014.6961   -2270.9444    501.52854       34.472       34.472     117.2048    139276.67
Averages over the last 6 of 12 rows, steps 11600 to 12065:
Temp TotEng Press Lx Ly Lz Volume
996.915 -2275.47 -535.71 34.472 34.472 117.205 139277
Loop time of 19.1013 on 7 procs for 1000 steps with 1254 atoms

#
#
#
next i
#
jump in_deposit_sa-2_1000K_CdTe.lammps loop
#
# continue for 10000 steps to observe surface diffusion
run 10000
Step Temp TotEng Press Lx Ly Lz Volume
12065    981.62854   -2274.1875   -740.98877       34.472       34.472     117.2048    139276.67
Averages over the last 51 of 102 rows, steps 17100 to 22065:
Temp TotEng Press Lx Ly Lz Volume
999.21 -2280.03 -400.606 34.472 34.472 117.205 139277
Loop time of 132.768 on 7 procs for 10000 steps with 1254 atoms

#
# jump in_deposit_sa-2_1000K_CdTe.lammps loop
#
# Save state of simulation
#
write_restart deposited_state_1000K_sa-2.restart
System init for write_restart ...
