#
# Tell lammps that you will be modifying internal data structures (adding atoms)
#
atom_modify map array
#
# Read in the final state of the initialization simulation (will still need to define fixed layer)
#
read_restart state_1000K.restart
Reading restart file ...
  restart file = 29 Sep 2021, LAMMPS = 29 Sep 2021
  restoring atom style atomic from restart
  orthogonal box = (-0.049446723 -0.049446723 -13.756634) to (34.193798 34.193798 54.729855)
  pair style bop stores no restart info
  1250 atoms
  read_restart CPU = 0.002 seconds
#
# Define a bottom region of the slab (of thickness 4 Angstroms) in which
# the atomis will be fixed (i.e. will always experience a zero force)
#
variable thickness equal 4.0
variable sxlo equal xlo
variable sxhi equal xhi
variable sylo equal ylo
variable syhi equal yhi
variable szlo equal zlo
variable szhi equal zlo+4
region layer block -0.0494467232106395 34.1937975432096 -0.0494467232106395 34.1937975432096 -13.7566337744213 -9.75663377442128 units box
group fixedlayer region layer
150 atoms in group fixedlayer
#
# Define embedded atom potential for Tungsten
#
pair_style    bop
pair_coeff  * * CdTe1.bop.table Cd Te
Reading BOP potential file CdTe1.bop.table with DATE: 2012-06-25
#
# Set the initial velocities to zero
#
neighbor        0.3 bin
neigh_modify    delay 0 every 10 check no
#
# Define outputed variables
#
thermo_style custom step temp etotal press lx ly lz vol
thermo 100
#
# Set the forces within the fixed layer to always be zero
#
fix 1 fixedlayer setforce 0.0 0.0 0.0
#
# Will perform a finite temperature simulation (fixed volume at 1500K)
#
fix 2 all nvt temp 1000.0 1000.0 0.01
# fix 2 all npt temp 1000.0 1000.0 0.01 iso 0.0 0.0 0.01
#
# Output structure every 10 steps (this file will rapidly grow in size)
#
dump eqiul all atom 10 dump_deposit1.atom
#
# Will perform twenty deposits (atoms will be created with zero velocity
# and placed nearer enough such that they are attracted to the surface)
#
# This is done via a loop where each cycle represent creation of an atom
# and 1000 md steps
#
variable i loop 1 20
label loop
#
# Create depositing atom (placed randomly within the x-y plane, z distance is fixed)
#
variable seed equal 12345
variable newx equal random(xlo,xhi,12345)
variable newy equal random(ylo,yhi,12345)
create_atoms 1 single 29.7405696404644 0.307570781993662 28.0
Created 1 atoms
variable newx2 equal random(xlo,xhi,12345)
variable newy2 equal random(ylo,yhi,12345)
create_atoms 2 single 10.0032684034487 0.657430302366491 28.0
Created 1 atoms
run 1000
Unused restart file global fix info:
  fix style: npt, fix ID: 2
  update every 10 steps, delay 0 steps, check no
Step Temp TotEng Press Lx Ly Lz Volume
10043    996.99121   -2278.2604    1493.1861    34.243244    34.243244    68.486489    80307.241
Averages over the last 6 of 12 rows, steps 10600 to 11043:
Temp TotEng Press Lx Ly Lz Volume
1005.92 -2276.03 646.371 34.2432 34.2432 68.4865 80307.2
Loop time of 19.9309 on 1 procs for 1000 steps with 1252 atoms

#
#
#
next i
jump in_deposit1_CdTe.lammps loop
#
# Create depositing atom (placed randomly within the x-y plane, z distance is fixed)
#
variable seed equal 12345
variable newx equal random(xlo,xhi,12345)
variable newy equal random(ylo,yhi,12345)
create_atoms 1 single 2.5763192813755 10.3145070544228 28.0
Created 1 atoms
variable newx2 equal random(xlo,xhi,12345)
variable newy2 equal random(ylo,yhi,12345)
create_atoms 2 single 22.0117094952129 20.5498742781975 28.0
Created 1 atoms
run 1000
Step Temp TotEng Press Lx Ly Lz Volume
11043    1036.2512   -1992.8056    7925.3999    34.243244    34.243244    68.486489    80307.241
Averages over the last 6 of 12 rows, steps 11600 to 12043:
Temp TotEng Press Lx Ly Lz Volume
987.034 -2298.3 50.1274 34.2432 34.2432 68.4865 80307.2
Loop time of 20.7346 on 1 procs for 1000 steps with 1254 atoms

#
#
#
next i
jump in_deposit1_CdTe.lammps loop
#
# Create depositing atom (placed randomly within the x-y plane, z distance is fixed)
#
variable seed equal 12345
variable newx equal random(xlo,xhi,12345)
variable newy equal random(ylo,yhi,12345)
create_atoms 1 single 13.2992152804083 18.9010068570099 28.0
Created 1 atoms
variable newx2 equal random(xlo,xhi,12345)
variable newy2 equal random(ylo,yhi,12345)
create_atoms 2 single 1.53427834158083 12.5273938809069 28.0
Created 1 atoms
run 1000
Step Temp TotEng Press Lx Ly Lz Volume
12043    987.78427   -2267.4124    1324.1897    34.243244    34.243244    68.486489    80307.241
Averages over the last 6 of 12 rows, steps 12600 to 13043:
Temp TotEng Press Lx Ly Lz Volume
1012.33 -2274.25 1796.31 34.2432 34.2432 68.4865 80307.2
Loop time of 23.6596 on 1 procs for 1000 steps with 1256 atoms

#
#
#
next i
jump in_deposit1_CdTe.lammps loop
#
# Create depositing atom (placed randomly within the x-y plane, z distance is fixed)
#
variable seed equal 12345
variable newx equal random(xlo,xhi,12345)
variable newy equal random(ylo,yhi,12345)
create_atoms 1 single 19.7169722245567 21.3981271171013 28.0
Created 1 atoms
variable newx2 equal random(xlo,xhi,12345)
variable newy2 equal random(ylo,yhi,12345)
create_atoms 2 single 14.2495617609632 21.5522860667267 28.0
Created 1 atoms
run 1000
Step Temp TotEng Press Lx Ly Lz Volume
13043    1013.1379   -2266.9234    1953.2825    34.243244    34.243244    68.486489    80307.241
Averages over the last 6 of 12 rows, steps 13600 to 14043:
Temp TotEng Press Lx Ly Lz Volume
1004.74 -2271.49 722.527 34.2432 34.2432 68.4865 80307.2
Loop time of 23.7069 on 1 procs for 1000 steps with 1258 atoms

#
#
#
next i
jump in_deposit1_CdTe.lammps loop
#
# Create depositing atom (placed randomly within the x-y plane, z distance is fixed)
#
variable seed equal 12345
variable newx equal random(xlo,xhi,12345)
variable newy equal random(ylo,yhi,12345)
create_atoms 1 single 15.4740302816681 10.7540403881891 28.0
Created 1 atoms
variable newx2 equal random(xlo,xhi,12345)
variable newy2 equal random(ylo,yhi,12345)
create_atoms 2 single 17.7093197433133 1.91035114943316 28.0
Created 1 atoms
run 1000
Step Temp TotEng Press Lx Ly Lz Volume
14043     1020.685    5161.8785    165104.76    34.243244    34.243244    68.486489    80307.241
Averages over the last 6 of 12 rows, steps 14600 to 15043:
Temp TotEng Press Lx Ly Lz Volume
664.916 -2379.62 678.757 34.2432 34.2432 68.4865 80307.2
Loop time of 20.7821 on 1 procs for 1000 steps with 1260 atoms

#
#
#
next i
jump in_deposit1_CdTe.lammps loop
#
# Create depositing atom (placed randomly within the x-y plane, z distance is fixed)
#
variable seed equal 12345
variable newx equal random(xlo,xhi,12345)
variable newy equal random(ylo,yhi,12345)
create_atoms 1 single 9.46278237856479 9.91032073557286 28.0
Created 1 atoms
variable newx2 equal random(xlo,xhi,12345)
variable newy2 equal random(ylo,yhi,12345)
create_atoms 2 single 8.12976435478257 1.53962386831982 28.0
Created 1 atoms
run 1000
Step Temp TotEng Press Lx Ly Lz Volume
15043    208.21445   -2434.8002      553.158    34.243244    34.243244    68.486489    80307.241
Averages over the last 6 of 12 rows, steps 15600 to 16043:
Temp TotEng Press Lx Ly Lz Volume
912.761 -2300.13 834.471 34.2432 34.2432 68.4865 80307.2
Loop time of 22.0112 on 1 procs for 1000 steps with 1262 atoms

#
#
#
next i
jump in_deposit1_CdTe.lammps loop
#
# Create depositing atom (placed randomly within the x-y plane, z distance is fixed)
#
variable seed equal 12345
variable newx equal random(xlo,xhi,12345)
variable newy equal random(ylo,yhi,12345)
create_atoms 1 single 20.6528904773461 9.17976949669084 28.0
Created 1 atoms
variable newx2 equal random(xlo,xhi,12345)
variable newy2 equal random(ylo,yhi,12345)
create_atoms 2 single 7.52157444770744 13.6330525079591 28.0
Created 1 atoms
run 1000
Step Temp TotEng Press Lx Ly Lz Volume
16043    406.61518   -2333.8971    1060.4038    34.243244    34.243244    68.486489    80307.241
Averages over the last 6 of 12 rows, steps 16600 to 17043:
Temp TotEng Press Lx Ly Lz Volume
1322.06 -2237.95 1290.44 34.2432 34.2432 68.4865 80307.2
Loop time of 22.7157 on 1 procs for 1000 steps with 1264 atoms

#
#
#
next i
jump in_deposit1_CdTe.lammps loop
#
# Create depositing atom (placed randomly within the x-y plane, z distance is fixed)
#
variable seed equal 12345
variable newx equal random(xlo,xhi,12345)
variable newy equal random(ylo,yhi,12345)
create_atoms 1 single 4.51069987853988 25.1847888583759 28.0
Created 1 atoms
variable newx2 equal random(xlo,xhi,12345)
variable newy2 equal random(ylo,yhi,12345)
create_atoms 2 single 0.326150518498051 10.3772532105931 28.0
Created 1 atoms
run 1000
Step Temp TotEng Press Lx Ly Lz Volume
17043    2117.8918   -2102.3654    3467.2137    34.243244    34.243244    68.486489    80307.241
Averages over the last 6 of 12 rows, steps 17600 to 18043:
Temp TotEng Press Lx Ly Lz Volume
809.103 -2316.65 400.368 34.2432 34.2432 68.4865 80307.2
Loop time of 21.4094 on 1 procs for 1000 steps with 1266 atoms

#
#
#
next i
jump in_deposit1_CdTe.lammps loop
#
# Create depositing atom (placed randomly within the x-y plane, z distance is fixed)
#
variable seed equal 12345
variable newx equal random(xlo,xhi,12345)
variable newy equal random(ylo,yhi,12345)
create_atoms 1 single 4.91627207469254 31.7628422087759 28.0
Created 1 atoms
variable newx2 equal random(xlo,xhi,12345)
variable newy2 equal random(ylo,yhi,12345)
create_atoms 2 single 26.6931642436625 29.5545824571744 28.0
Created 1 atoms
run 1000
Step Temp TotEng Press Lx Ly Lz Volume
18043     482.5964    -2345.214    966.46497    34.243244    34.243244    68.486489    80307.241
Averages over the last 6 of 12 rows, steps 18600 to 19043:
Temp TotEng Press Lx Ly Lz Volume
933.809 -2298.16 771.926 34.2432 34.2432 68.4865 80307.2
Loop time of 22.1457 on 1 procs for 1000 steps with 1268 atoms

#
#
#
next i
jump in_deposit1_CdTe.lammps loop
#
# Create depositing atom (placed randomly within the x-y plane, z distance is fixed)
#
variable seed equal 12345
variable newx equal random(xlo,xhi,12345)
variable newy equal random(ylo,yhi,12345)
create_atoms 1 single 4.03813204677038 22.6457636691213 28.0
Created 1 atoms
variable newx2 equal random(xlo,xhi,12345)
variable newy2 equal random(ylo,yhi,12345)
create_atoms 2 single 14.7329431095953 6.11914009540557 28.0
Created 1 atoms
run 1000
Step Temp TotEng Press Lx Ly Lz Volume
19043    784.04257   -2320.2267    545.27857    34.243244    34.243244    68.486489    80307.241
Averages over the last 6 of 12 rows, steps 19600 to 20043:
Temp TotEng Press Lx Ly Lz Volume
1234.71 -2247.59 1498.37 34.2432 34.2432 68.4865 80307.2
Loop time of 22.8517 on 1 procs for 1000 steps with 1270 atoms

#
#
#
next i
jump in_deposit1_CdTe.lammps loop
#
# Create depositing atom (placed randomly within the x-y plane, z distance is fixed)
#
variable seed equal 12345
variable newx equal random(xlo,xhi,12345)
variable newy equal random(ylo,yhi,12345)
create_atoms 1 single 14.0820828772032 22.2785327176391 28.0
Created 1 atoms
variable newx2 equal random(xlo,xhi,12345)
variable newy2 equal random(ylo,yhi,12345)
create_atoms 2 single 10.2319728563532 16.3317291296395 28.0
Created 1 atoms
run 1000
Step Temp TotEng Press Lx Ly Lz Volume
20043     1647.597   -2100.7266    4381.9228    34.243244    34.243244    68.486489    80307.241
Averages over the last 6 of 12 rows, steps 20600 to 21043:
Temp TotEng Press Lx Ly Lz Volume
946.452 -2290.24 1066.63 34.2432 34.2432 68.4865 80307.2
Loop time of 23.2722 on 1 procs for 1000 steps with 1272 atoms

#
#
#
next i
jump in_deposit1_CdTe.lammps loop
#
# Create depositing atom (placed randomly within the x-y plane, z distance is fixed)
#
variable seed equal 12345
variable newx equal random(xlo,xhi,12345)
variable newy equal random(ylo,yhi,12345)
create_atoms 1 single 18.4249079976503 5.45012670729883 28.0
Created 1 atoms
variable newx2 equal random(xlo,xhi,12345)
variable newy2 equal random(ylo,yhi,12345)
create_atoms 2 single 17.3958808335287 8.14575194964568 28.0
Created 1 atoms
run 1000
Step Temp TotEng Press Lx Ly Lz Volume
21043    884.78835    854.63912     63185.07    34.243244    34.243244    68.486489    80307.241
Averages over the last 6 of 12 rows, steps 21600 to 22043:
Temp TotEng Press Lx Ly Lz Volume
1125.54 -2286.05 1821.05 34.2432 34.2432 68.4865 80307.2
Loop time of 21.9978 on 1 procs for 1000 steps with 1274 atoms

#
#
#
next i
jump in_deposit1_CdTe.lammps loop
#
# Create depositing atom (placed randomly within the x-y plane, z distance is fixed)
#
variable seed equal 12345
variable newx equal random(xlo,xhi,12345)
variable newy equal random(ylo,yhi,12345)
create_atoms 1 single 9.71547128534859 16.1541653861554 28.0
Created 1 atoms
variable newx2 equal random(xlo,xhi,12345)
variable newy2 equal random(ylo,yhi,12345)
create_atoms 2 single 10.6542510992254 5.56839776205916 28.0
Created 1 atoms
run 1000
Step Temp TotEng Press Lx Ly Lz Volume
22043    2208.9207   -2109.1612     3626.688    34.243244    34.243244    68.486489    80307.241
Averages over the last 6 of 12 rows, steps 22600 to 23043:
Temp TotEng Press Lx Ly Lz Volume
1099.95 -2275.71 1383.8 34.2432 34.2432 68.4865 80307.2
Loop time of 21.4427 on 1 procs for 1000 steps with 1276 atoms

#
#
#
next i
jump in_deposit1_CdTe.lammps loop
#
# Create depositing atom (placed randomly within the x-y plane, z distance is fixed)
#
variable seed equal 12345
variable newx equal random(xlo,xhi,12345)
variable newy equal random(ylo,yhi,12345)
create_atoms 1 single 32.4460633905558 14.722692924302 28.0
Created 1 atoms
variable newx2 equal random(xlo,xhi,12345)
variable newy2 equal random(ylo,yhi,12345)
create_atoms 2 single 19.0160020162314 25.7956117282205 28.0
Created 1 atoms
run 1000
Step Temp TotEng Press Lx Ly Lz Volume
23043     1694.583   -2177.6337    3259.6781    34.243244    34.243244    68.486489    80307.241
Averages over the last 6 of 12 rows, steps 23600 to 24043:
Temp TotEng Press Lx Ly Lz Volume
823.293 -2304.28 226.135 34.2432 34.2432 68.4865 80307.2
Loop time of 22.5909 on 1 procs for 1000 steps with 1278 atoms

#
#
#
next i
jump in_deposit1_CdTe.lammps loop
#
# Create depositing atom (placed randomly within the x-y plane, z distance is fixed)
#
variable seed equal 12345
variable newx equal random(xlo,xhi,12345)
variable newy equal random(ylo,yhi,12345)
create_atoms 1 single 19.1310563660889 31.7182900294484 28.0
Created 1 atoms
variable newx2 equal random(xlo,xhi,12345)
variable newy2 equal random(ylo,yhi,12345)
create_atoms 2 single 29.3191343538897 7.20781917417918 28.0
Created 1 atoms
run 1000
Step Temp TotEng Press Lx Ly Lz Volume
24043    477.93492   -2342.8247    241.23814    34.243244    34.243244    68.486489    80307.241
Averages over the last 6 of 12 rows, steps 24600 to 25043:
Temp TotEng Press Lx Ly Lz Volume
893.051 -2278.75 1019.98 34.2432 34.2432 68.4865 80307.2
Loop time of 24.9689 on 1 procs for 1000 steps with 1280 atoms

#
#
#
next i
jump in_deposit1_CdTe.lammps loop
#
# Create depositing atom (placed randomly within the x-y plane, z distance is fixed)
#
variable seed equal 12345
variable newx equal random(xlo,xhi,12345)
variable newy equal random(ylo,yhi,12345)
create_atoms 1 single 15.3492053947738 30.5219207323463 28.0
Created 1 atoms
variable newx2 equal random(xlo,xhi,12345)
variable newy2 equal random(ylo,yhi,12345)
create_atoms 2 single 25.5020220920275 21.848194343002 28.0
Created 1 atoms
run 1000
Step Temp TotEng Press Lx Ly Lz Volume
25043    674.64362   -2236.2979    2805.4684    34.243244    34.243244    68.486489    80307.241
Averages over the last 6 of 12 rows, steps 25600 to 26043:
Temp TotEng Press Lx Ly Lz Volume
978.432 -2263.95 1243.64 34.2432 34.2432 68.4865 80307.2
Loop time of 23.0007 on 1 procs for 1000 steps with 1282 atoms

#
#
#
next i
jump in_deposit1_CdTe.lammps loop
#
# Create depositing atom (placed randomly within the x-y plane, z distance is fixed)
#
variable seed equal 12345
variable newx equal random(xlo,xhi,12345)
variable newy equal random(ylo,yhi,12345)
create_atoms 1 single 4.37137328584927 26.6899291692519 28.0
Created 1 atoms
variable newx2 equal random(xlo,xhi,12345)
variable newy2 equal random(ylo,yhi,12345)
create_atoms 2 single 11.9665687288928 14.2263998528174 28.0
Created 1 atoms
run 1000
Step Temp TotEng Press Lx Ly Lz Volume
26043    925.40294   -2269.8781    1652.4263    34.243244    34.243244    68.486489    80307.241
Averages over the last 6 of 12 rows, steps 26600 to 27043:
Temp TotEng Press Lx Ly Lz Volume
970.937 -2269.25 674.53 34.2432 34.2432 68.4865 80307.2
Loop time of 23.8763 on 1 procs for 1000 steps with 1284 atoms

#
#
#
next i
jump in_deposit1_CdTe.lammps loop
#
# Create depositing atom (placed randomly within the x-y plane, z distance is fixed)
#
variable seed equal 12345
variable newx equal random(xlo,xhi,12345)
variable newy equal random(ylo,yhi,12345)
create_atoms 1 single 26.2888125992433 7.25355720728111 28.0
Created 1 atoms
variable newx2 equal random(xlo,xhi,12345)
variable newy2 equal random(ylo,yhi,12345)
create_atoms 2 single 25.1883382554737 21.8579322231362 28.0
Created 1 atoms
run 1000
Step Temp TotEng Press Lx Ly Lz Volume
27043    915.14459   -2160.2131    3118.3192    34.243244    34.243244    68.486489    80307.241
Averages over the last 6 of 12 rows, steps 27600 to 28043:
Temp TotEng Press Lx Ly Lz Volume
899.345 -2288.1 279.958 34.2432 34.2432 68.4865 80307.2
Loop time of 22.5798 on 1 procs for 1000 steps with 1286 atoms

#
#
#
next i
jump in_deposit1_CdTe.lammps loop
#
# Create depositing atom (placed randomly within the x-y plane, z distance is fixed)
#
variable seed equal 12345
variable newx equal random(xlo,xhi,12345)
variable newy equal random(ylo,yhi,12345)
create_atoms 1 single 10.448441176077 4.70211831293817 28.0
Created 1 atoms
variable newx2 equal random(xlo,xhi,12345)
variable newy2 equal random(ylo,yhi,12345)
create_atoms 2 single 7.8495395559653 18.6995525482414 28.0
Created 1 atoms
run 1000
Step Temp TotEng Press Lx Ly Lz Volume
28043    763.18631   -2258.6863    1266.8748    34.243244    34.243244    68.486489    80307.241
Averages over the last 6 of 12 rows, steps 28600 to 29043:
Temp TotEng Press Lx Ly Lz Volume
883.367 -2287.43 1202.84 34.2432 34.2432 68.4865 80307.2
Loop time of 23.725 on 1 procs for 1000 steps with 1288 atoms

#
#
#
next i
jump in_deposit1_CdTe.lammps loop
#
# Create depositing atom (placed randomly within the x-y plane, z distance is fixed)
#
variable seed equal 12345
variable newx equal random(xlo,xhi,12345)
variable newy equal random(ylo,yhi,12345)
create_atoms 1 single 12.1876580003299 28.669619177672 28.0
Created 1 atoms
variable newx2 equal random(xlo,xhi,12345)
variable newy2 equal random(ylo,yhi,12345)
create_atoms 2 single 30.0893208672064 25.7527577078265 28.0
Created 1 atoms
run 1000
Step Temp TotEng Press Lx Ly Lz Volume
29043    760.29522   -2280.9364    2291.7389    34.243244    34.243244    68.486489    80307.241
Averages over the last 6 of 12 rows, steps 29600 to 30043:
Temp TotEng Press Lx Ly Lz Volume
939.532 -2269.26 1732.62 34.2432 34.2432 68.4865 80307.2
Loop time of 24.6115 on 1 procs for 1000 steps with 1290 atoms

#
#
#
next i
jump in_deposit1_CdTe.lammps loop
#
# Save state of simulation
#
write_restart deposited_state_1000K_1.restart
System init for write_restart ...
