#
# Set up general geometry and type of simulation (will use a slab geometry under full periodicity)
#
dimension       3
atom_style      atomic
units           metal
boundary        p p p
#
# Create simulation geometry (cell and slab measured in terms of
# BCC unit cells of side length 3.1651956 - lattice constant of Tungsten)
#
# first define the entire simulation cell region
#
# source: https://www.ctcms.nist.gov/potentials/entry/2012--Ward-D-K-Zhou-X-W-Wong-B-M-et-al--Cd-Te/2012--Ward-D-K--Cd-Te--LAMMPS--ipr1.html
# a0 for CdTe, prototype: B3--ZnC--cubic-zinc-blende
#
# lattice custom 6.828870164 a1 1.0 0.0 0.0 a2 0.0 1.0 0.0 a3 0.0 0.0 1.0 basis 0.0 0.0 0.0 basis 0.5 0.0 0.5 basis 0.5 0.5 0.0 basis 0.0 0.5 0.5 basis 0.75 0.75 0.75 basis 0.25 0.75 0.25 basis 0.25 0.25 0.75 basis 0.75 0.25 0.25
# calculated new lattice constant at 1000K via extrapolation: a = ?
# result from lattice constant trials: a = 8.0 ?!
lattice custom 7.0 a1 1.0 0.0 0.0 a2 0.0 1.0 0.0 a3 0.0 0.0 1.0 basis 0.0 0.0 0.0 basis 0.5 0.0 0.5 basis 0.5 0.5 0.0 basis 0.0 0.5 0.5 basis 0.75 0.75 0.75 basis 0.25 0.75 0.25 basis 0.25 0.25 0.75 basis 0.75 0.25 0.25
Lattice spacing in x,y,z = 7.0000000 7.0000000 7.0000000
region box block 0 5 0 5 -2 8
create_box 2 box
Created orthogonal box = (0.0000000 0.0000000 -14.000000) to (35.000000 35.000000 56.000000)

#
# Now add the slab of atoms
#
region slab block 0 5 0 5 -2 4
create_atoms 2 region slab basis 1 1 basis 2 1  basis 3 1 basis 4 1 basis 5 2 basis 6 2 basis 7 2 basis 8 2
Created 1250 atoms

# Define atomic masses of atom (Cd and Te)
#
mass 1 112.411
mass 2 127.6
#
# Save starting configuration
#
write_data initial_lattice.lammps
System init for write_data ...
#

#
# Define a bottom region of the slab (of thickness 4 Angstroms) in which
# the atomis will be fixed (i.e. will always experience a zero force)
#
variable thickness equal 4.0
variable sxlo equal xlo
variable sxhi equal xhi
variable sylo equal ylo
variable syhi equal yhi
variable szlo equal zlo-0.1
variable szhi equal zlo+4
region layer block 0 35 0 35 -14.1 -10 units box
group fixedlayer region layer
150 atoms in group fixedlayer
#
# Set the initial velocities to zero
#
velocity all create 0.0 87287
#
# Write out initial configuration
#
write_data initial.lammps
System init for write_data ...
# dump 0 all atom 1 dump_initial.atom
#
# Define embedded atom potential for Cadmium Telluride
#
pair_style  bop
pair_coeff  * * CdTe1.bop.table Cd Te
Reading BOP potential file CdTe1.bop.table with DATE: 2012-06-25
# pair_modify   shift yes
#
# Pair style bop requires setting a communication cutoff of at least 14.70
#
comm_modify cutoff 15.00
#
# Set up neighbour list
#
neighbor        0.3 bin
neigh_modify    delay 0 every 10 check yes
#
# Define outputed variables
#
thermo_style custom step temp etotal press lx ly lz vol
thermo 100
#
# Set the forces within the fixed layer to always be zero
#
fix 1 fixedlayer setforce 0.0 0.0 0.0
#
# Minimize structure to find relaxed zero temperature structure
#
minimize        1.0e-15 1e-15 100000 100000
  update every 1 steps, delay 0 steps, check yes
Step Temp TotEng Press Lx Ly Lz Volume
0            0   -2579.2437   -14146.392           35           35           70        85750
Loop time of 1.39447 on 1 procs for 247 steps with 1250 atoms

Minimization stats:
  Stopping criterion = energy tolerance
  Energy initial, next-to-last, final =
  Force two-norm initial, final = 2.8134500 1.9150510e-08
  Force max component initial, final = 0.39582739 1.6851189e-09
  Final line search alpha, max atom move = 1.0000000 1.6851189e-09
  Iterations, force evaluations = 247 486

#
# Write out initial relaxed structure
#
write_data initial_relaxed.lammps
System init for write_data ...
#
# Set up initial temperature to be 1K within the dynamical region and 0K within the static region
#
velocity all create 1.0 220368
velocity fixedlayer create 0.0 123456
#
# Equilibriate at 1000K
# 1500K would be way too high!!
#
fix 2 all nvt temp 1000.0 1000.0 0.01
# fix 2 all npt temp 1000.0 1000.0 0.01 iso 0.0 0.0 0.01
#
# Output structure every 100 steps
#
dump eqiul all atom 100 dump_thermalize_1000K_7-0.atom
#
# Define time step (1 femto-second)
#
timestep 0.001
#
# Perform the simulation
run 10000
Step Temp TotEng Press Lx Ly Lz Volume
247   0.87922648   -2599.0868   -4528.5791           35           35           70        85750
Averages over the last 51 of 102 rows, steps 5300 to 10247:
Temp TotEng Press Lx Ly Lz Volume
1003.91 -2241.14 -3307.18 35 35 70 85750
Loop time of 80.1752 on 1 procs for 10000 steps with 1250 atoms

#
# Save state of simulation
#
write_restart state_1000K.restart
System init for write_restart ...
