#
# Tell lammps that you will be modifying internal data structures (adding atoms)
#
atom_modify map array
#
# Read in the final state of the initialization simulation (will still need to define fixed layer)
#
read_restart state_1000K.restart
Reading restart file ...
  restart file = 29 Sep 2021, LAMMPS = 29 Sep 2021
  restoring atom style atomic from restart
  orthogonal box = (0.0000000 0.0000000 -13.657740) to (34.144351 34.144351 54.630961)
  pair style bop stores no restart info
  1250 atoms
  read_restart CPU = 0.002 seconds
#
# Define a bottom region of the slab (of thickness 4 Angstroms) in which
# the atomis will be fixed (i.e. will always experience a zero force)
#
variable thickness equal 4.0
variable sxlo equal xlo
variable sxhi equal xhi
variable sylo equal ylo
variable syhi equal yhi
variable szlo equal zlo
variable szhi equal zlo+4
region layer block 0 34.14435082 0 34.14435082 -13.657740328 -9.657740328 units box
group fixedlayer region layer
150 atoms in group fixedlayer
#
# Define embedded atom potential for Tungsten
#
pair_style    bop
pair_coeff  * * CdTe1.bop.table Cd Te
Reading BOP potential file CdTe1.bop.table with DATE: 2012-06-25
#
# Set the initial velocities to zero
#
neighbor        0.3 bin
neigh_modify    delay 0 every 10 check no
#
# Define outputed variables
#
thermo_style custom step temp etotal press lx ly lz vol
thermo 100
#
# Set the forces within the fixed layer to always be zero
#
fix 1 fixedlayer setforce 0.0 0.0 0.0
#
# Will perform a finite temperature simulation (fixed volume at 1000K)
#
fix 2 all nvt temp 1000.0 1000.0 0.01
  fix style: nvt, fix ID: 2
#
# Output structure every 10 steps (this file will rapidly grow in size)
#
dump eqiul all atom 10 dump_deposit2.atom
#
# Will perform twenty deposits (atoms will be created with zero velocity
# and placed nearer enough such that they are attracted to the surface)
#
# This is done via a loop where each cycle represent creation of an atom
# and 1000 md steps
#
variable i loop 1 20
label loop
#
# Create depositing atom (placed randomly within the x-y plane, z distance is fixed to 45)
#
variable seed equal 12345
variable newx1 equal random(xlo,xhi,12345)
variable newy1 equal random(ylo,yhi,12345)
create_atoms 1 single 29.7039837037963 0.355986449523733 45.0
Created 1 atoms
variable newx2 equal random(xlo,xhi,12345)
variable newy2 equal random(ylo,yhi,12345)
create_atoms 2 single 10.023683191571 0.70483558625816 45.0
Created 1 atoms
# space for Clara :)
run 1000
All restart file global fix info was re-assigned
  update every 10 steps, delay 0 steps, check no
Step Temp TotEng Press Lx Ly Lz Volume
10043    971.48254   -2244.2248   -705.50583    34.144351    34.144351    68.288702    79613.474
Averages over the last 6 of 12 rows, steps 10600 to 11043:
Temp TotEng Press Lx Ly Lz Volume
999.088 -2240.98 -344.432 34.1444 34.1444 68.2887 79613.5
Loop time of 24.5512 on 1 procs for 1000 steps with 1252 atoms

#
#
#
next i
jump in_deposit2_CdTe.lammps loop
#
# Create depositing atom (placed randomly within the x-y plane, z distance is fixed to 45)
#
variable seed equal 12345
variable newx1 equal random(xlo,xhi,12345)
variable newy1 equal random(ylo,yhi,12345)
create_atoms 1 single 2.61818287234358 10.3340229948012 45.0
Created 1 atoms
variable newx2 equal random(xlo,xhi,12345)
variable newy2 equal random(ylo,yhi,12345)
create_atoms 2 single 21.9974442712295 20.5398307897945 45.0
Created 1 atoms
# space for Clara :)
run 1000
Step Temp TotEng Press Lx Ly Lz Volume
11043    986.73946   -2247.4472   -29.375912    34.144351    34.144351    68.288702    79613.474
Averages over the last 6 of 12 rows, steps 11600 to 12043:
Temp TotEng Press Lx Ly Lz Volume
990.931 -2242.8 1662.13 34.1444 34.1444 68.2887 79613.5
Loop time of 24.8795 on 1 procs for 1000 steps with 1254 atoms

#
#
#
next i
jump in_deposit2_CdTe.lammps loop
#
# Create depositing atom (placed randomly within the x-y plane, z distance is fixed to 45)
#
variable seed equal 12345
variable newx1 equal random(xlo,xhi,12345)
variable newy1 equal random(ylo,yhi,12345)
create_atoms 1 single 13.3101114743418 18.8957252474962 45.0
Created 1 atoms
variable newx2 equal random(xlo,xhi,12345)
variable newy2 equal random(ylo,yhi,12345)
create_atoms 2 single 1.57915131504332 12.5405190715331 45.0
Created 1 atoms
# space for Clara :)
run 1000
Step Temp TotEng Press Lx Ly Lz Volume
12043     969.7091   -2245.0195    2136.4359    34.144351    34.144351    68.288702    79613.474
Averages over the last 6 of 12 rows, steps 12600 to 13043:
Temp TotEng Press Lx Ly Lz Volume
993.21 -2243.55 1891.45 34.1444 34.1444 68.2887 79613.5
Loop time of 25.1171 on 1 procs for 1000 steps with 1256 atoms

#
#
#
next i
jump in_deposit2_CdTe.lammps loop
#
# Create depositing atom (placed randomly within the x-y plane, z distance is fixed to 45)
#
variable seed equal 12345
variable newx1 equal random(xlo,xhi,12345)
variable newy1 equal random(ylo,yhi,12345)
create_atoms 1 single 19.7093341319151 21.3856339003367 45.0
Created 1 atoms
variable newx2 equal random(xlo,xhi,12345)
variable newy2 equal random(ylo,yhi,12345)
create_atoms 2 single 14.2577133832077 21.5393476436112 45.0
Created 1 atoms
# space for Clara :)
run 1000
Step Temp TotEng Press Lx Ly Lz Volume
13043    1003.5634   -2242.6461    1727.9554    34.144351    34.144351    68.288702    79613.474
Averages over the last 6 of 12 rows, steps 13600 to 14043:
Temp TotEng Press Lx Ly Lz Volume
994.819 -2249.99 697.729 34.1444 34.1444 68.2887 79613.5
Loop time of 22.4898 on 1 procs for 1000 steps with 1258 atoms

#
#
#
next i
jump in_deposit2_CdTe.lammps loop
#
# Create depositing atom (placed randomly within the x-y plane, z distance is fixed to 45)
#
variable seed equal 12345
variable newx1 equal random(xlo,xhi,12345)
variable newy1 equal random(ylo,yhi,12345)
create_atoms 1 single 15.4786456761211 10.7722869696874 45.0
Created 1 atoms
variable newx2 equal random(xlo,xhi,12345)
variable newy2 equal random(ylo,yhi,12345)
create_atoms 2 single 17.7074796898862 1.95413803608144 45.0
Created 1 atoms
# space for Clara :)
run 1000
Step Temp TotEng Press Lx Ly Lz Volume
14043    963.96913    -2257.242    440.95256    34.144351    34.144351    68.288702    79613.474
Averages over the last 6 of 12 rows, steps 14600 to 15043:
Temp TotEng Press Lx Ly Lz Volume
1007.92 -2240.42 -117.386 34.1444 34.1444 68.2887 79613.5
Loop time of 21.2348 on 1 procs for 1000 steps with 1260 atoms

#
#
#
next i
jump in_deposit2_CdTe.lammps loop
#
# Create depositing atom (placed randomly within the x-y plane, z distance is fixed to 45)
#
variable seed equal 12345
variable newx1 equal random(xlo,xhi,12345)
variable newy1 equal random(ylo,yhi,12345)
create_atoms 1 single 9.48475807386423 9.9310039537289 45.0
Created 1 atoms
variable newx2 equal random(xlo,xhi,12345)
variable newy2 equal random(ylo,yhi,12345)
create_atoms 2 single 8.15558976553204 1.58448140406391 45.0
Created 1 atoms
# space for Clara :)
run 1000
Step Temp TotEng Press Lx Ly Lz Volume
15043    1002.9847   -2239.5166    46.474652    34.144351    34.144351    68.288702    79613.474
Averages over the last 6 of 12 rows, steps 15600 to 16043:
Temp TotEng Press Lx Ly Lz Volume
1000.51 -2246.25 -378.322 34.1444 34.1444 68.2887 79613.5
Loop time of 21.5335 on 1 procs for 1000 steps with 1262 atoms

#
#
#
next i
jump in_deposit2_CdTe.lammps loop
#
# Create depositing atom (placed randomly within the x-y plane, z distance is fixed to 45)
#
variable seed equal 12345
variable newx1 equal random(xlo,xhi,12345)
variable newy1 equal random(ylo,yhi,12345)
create_atoms 1 single 20.6425494812978 9.20256252457278 45.0
Created 1 atoms
variable newx2 equal random(xlo,xhi,12345)
variable newy2 equal random(ylo,yhi,12345)
create_atoms 2 single 7.54915629238358 13.6429845901478 45.0
Created 1 atoms
# space for Clara :)
run 1000
Step Temp TotEng Press Lx Ly Lz Volume
16043    988.06004    -2243.689    24.435705    34.144351    34.144351    68.288702    79613.474
Averages over the last 6 of 12 rows, steps 16600 to 17043:
Temp TotEng Press Lx Ly Lz Volume
1003.44 -2255.88 1379.81 34.1444 34.1444 68.2887 79613.5
Loop time of 21.4674 on 1 procs for 1000 steps with 1264 atoms

#
#
#
next i
jump in_deposit2_CdTe.lammps loop
#
# Create depositing atom (placed randomly within the x-y plane, z distance is fixed to 45)
#
variable seed equal 12345
variable newx1 equal random(xlo,xhi,12345)
variable newy1 equal random(ylo,yhi,12345)
create_atoms 1 single 4.546977037263 25.1613598778411 45.0
Created 1 atoms
variable newx2 equal random(xlo,xhi,12345)
variable newy2 equal random(ylo,yhi,12345)
create_atoms 2 single 0.374512528315021 10.3965879419837 45.0
Created 1 atoms
# space for Clara :)
run 1000
Step Temp TotEng Press Lx Ly Lz Volume
17043    1018.6139   -2253.4375    1913.3105    34.144351    34.144351    68.288702    79613.474
Averages over the last 6 of 12 rows, steps 17600 to 18043:
Temp TotEng Press Lx Ly Lz Volume
1010.88 -2262.41 2012.86 34.1444 34.1444 68.2887 79613.5
Loop time of 21.2 on 1 procs for 1000 steps with 1266 atoms

#
#
#
next i
jump in_deposit2_CdTe.lammps loop
#
# Create depositing atom (placed randomly within the x-y plane, z distance is fixed to 45)
#
variable seed equal 12345
variable newx1 equal random(xlo,xhi,12345)
variable newy1 equal random(ylo,yhi,12345)
create_atoms 1 single 4.95137795326657 31.7204160105273 45.0
Created 1 atoms
variable newx2 equal random(xlo,xhi,12345)
variable newy2 equal random(ylo,yhi,12345)
create_atoms 2 single 26.6653791209589 29.5185336458266 45.0
Created 1 atoms
# space for Clara :)
run 1000
Step Temp TotEng Press Lx Ly Lz Volume
18043    1013.2838    -2223.848    3588.8831    34.144351    34.144351    68.288702    79613.474
Averages over the last 6 of 12 rows, steps 18600 to 19043:
Temp TotEng Press Lx Ly Lz Volume
1011.45 -2287.19 1370.48 34.1444 34.1444 68.2887 79613.5
Loop time of 20.0632 on 1 procs for 1000 steps with 1268 atoms

#
#
#
next i
jump in_deposit2_CdTe.lammps loop
#
# Create depositing atom (placed randomly within the x-y plane, z distance is fixed to 45)
#
variable seed equal 12345
variable newx1 equal random(xlo,xhi,12345)
variable newy1 equal random(ylo,yhi,12345)
create_atoms 1 single 4.07577396699762 22.6296673159965 45.0
Created 1 atoms
variable newx2 equal random(xlo,xhi,12345)
variable newy2 equal random(ylo,yhi,12345)
create_atoms 2 single 14.7396987412283 6.15077212777416 45.0
Created 1 atoms
# space for Clara :)
run 1000
Step Temp TotEng Press Lx Ly Lz Volume
19043    1032.7174   -2285.9868    1553.7822    34.144351    34.144351    68.288702    79613.474
Averages over the last 6 of 12 rows, steps 19600 to 20043:
Temp TotEng Press Lx Ly Lz Volume
984.82 -2292.1 293.665 34.1444 34.1444 68.2887 79613.5
Loop time of 18.8934 on 1 procs for 1000 steps with 1270 atoms

#
#
#
next i
jump in_deposit2_CdTe.lammps loop
#
# Create depositing atom (placed randomly within the x-y plane, z distance is fixed to 45)
#
variable seed equal 12345
variable newx1 equal random(xlo,xhi,12345)
variable newy1 equal random(ylo,yhi,12345)
create_atoms 1 single 14.0907181733627 22.2634969163166 45.0
Created 1 atoms
variable newx2 equal random(xlo,xhi,12345)
variable newy2 equal random(ylo,yhi,12345)
create_atoms 2 single 10.2517271529817 16.3338675159444 45.0
Created 1 atoms
# space for Clara :)
run 1000
Step Temp TotEng Press Lx Ly Lz Volume
20043    985.67442   -2292.7064    451.78671    34.144351    34.144351    68.288702    79613.474
Averages over the last 6 of 12 rows, steps 20600 to 21043:
Temp TotEng Press Lx Ly Lz Volume
993.372 -2288.93 270.961 34.1444 34.1444 68.2887 79613.5
Loop time of 18.2416 on 1 procs for 1000 steps with 1272 atoms

#
#
#
next i
jump in_deposit2_CdTe.lammps loop
#
# Create depositing atom (placed randomly within the x-y plane, z distance is fixed to 45)
#
variable seed equal 12345
variable newx1 equal random(xlo,xhi,12345)
variable newy1 equal random(ylo,yhi,12345)
create_atoms 1 single 18.4210013471408 5.48369082995466 45.0
Created 1 atoms
variable newx2 equal random(xlo,xhi,12345)
variable newy2 equal random(ylo,yhi,12345)
create_atoms 2 single 17.3949459821259 8.17153118870816 45.0
Created 1 atoms
# space for Clara :)
run 1000
Step Temp TotEng Press Lx Ly Lz Volume
21043    990.72443   -2288.8697    223.87996    34.144351    34.144351    68.288702    79613.474
Averages over the last 6 of 12 rows, steps 21600 to 22043:
Temp TotEng Press Lx Ly Lz Volume
1003.31 -2290.67 1358.82 34.1444 34.1444 68.2887 79613.5
Loop time of 19.0066 on 1 procs for 1000 steps with 1274 atoms

#
#
#
next i
jump in_deposit2_CdTe.lammps loop
#
# Create depositing atom (placed randomly within the x-y plane, z distance is fixed to 45)
#
variable seed equal 12345
variable newx1 equal random(xlo,xhi,12345)
variable newy1 equal random(ylo,yhi,12345)
create_atoms 1 single 9.73671722278193 16.156816571143 45.0
Created 1 atoms
variable newx2 equal random(xlo,xhi,12345)
variable newy2 equal random(ylo,yhi,12345)
create_atoms 2 single 10.6727858691508 5.60162032151129 45.0
Created 1 atoms
# space for Clara :)
run 1000
Step Temp TotEng Press Lx Ly Lz Volume
22043    1037.6518   -2281.9423    1479.6551    34.144351    34.144351    68.288702    79613.474
Averages over the last 6 of 12 rows, steps 22600 to 23043:
Temp TotEng Press Lx Ly Lz Volume
994.712 -2295.73 1659.46 34.1444 34.1444 68.2887 79613.5
Loop time of 18.4446 on 1 procs for 1000 steps with 1276 atoms

#
#
#
next i
jump in_deposit2_CdTe.lammps loop
#
# Create depositing atom (placed randomly within the x-y plane, z distance is fixed to 45)
#
variable seed equal 12345
variable newx1 equal random(xlo,xhi,12345)
variable newy1 equal random(ylo,yhi,12345)
create_atoms 1 single 32.4016640703446 14.7294781581579 45.0
Created 1 atoms
variable newx2 equal random(xlo,xhi,12345)
variable newy2 equal random(ylo,yhi,12345)
create_atoms 2 single 19.0103883042005 25.7704187098427 45.0
Created 1 atoms
# space for Clara :)
run 1000
Step Temp TotEng Press Lx Ly Lz Volume
23043    998.16079     -2290.43    1665.0653    34.144351    34.144351    68.288702    79613.474
Averages over the last 6 of 12 rows, steps 23600 to 24043:
Temp TotEng Press Lx Ly Lz Volume
989.455 -2302.52 1137.29 34.1444 34.1444 68.2887 79613.5
Loop time of 18.2952 on 1 procs for 1000 steps with 1278 atoms

#
#
#
next i
jump in_deposit2_CdTe.lammps loop
#
# Create depositing atom (placed randomly within the x-y plane, z distance is fixed to 45)
#
variable seed equal 12345
variable newx1 equal random(xlo,xhi,12345)
variable newy1 equal random(ylo,yhi,12345)
create_atoms 1 single 19.1251103806001 31.6759924965367 45.0
Created 1 atoms
variable newx2 equal random(xlo,xhi,12345)
variable newy2 equal random(ylo,yhi,12345)
create_atoms 2 single 29.2837655094926 7.23630713452854 45.0
Created 1 atoms
# space for Clara :)
run 1000
Step Temp TotEng Press Lx Ly Lz Volume
24043    952.78384   -2307.6383    827.17554    34.144351    34.144351    68.288702    79613.474
Averages over the last 6 of 12 rows, steps 24600 to 25043:
Temp TotEng Press Lx Ly Lz Volume
1019.77 -2294.28 417.937 34.1444 34.1444 68.2887 79613.5
Loop time of 17.9472 on 1 procs for 1000 steps with 1280 atoms

#
#
#
next i
jump in_deposit2_CdTe.lammps loop
#
# Create depositing atom (placed randomly within the x-y plane, z distance is fixed to 45)
#
variable seed equal 12345
variable newx1 equal random(xlo,xhi,12345)
variable newy1 equal random(ylo,yhi,12345)
create_atoms 1 single 15.3541812796981 30.4830782775241 45.0
Created 1 atoms
variable newx2 equal random(xlo,xhi,12345)
variable newy2 equal random(ylo,yhi,12345)
create_atoms 2 single 25.4776769515766 21.8344013457976 45.0
Created 1 atoms
# space for Clara :)
run 1000
Step Temp TotEng Press Lx Ly Lz Volume
25043    1033.6304   -2291.0893    525.23124    34.144351    34.144351    68.288702    79613.474
Averages over the last 6 of 12 rows, steps 25600 to 26043:
Temp TotEng Press Lx Ly Lz Volume
1014.32 -2293.53 526.071 34.1444 34.1444 68.2887 79613.5
Loop time of 17.7446 on 1 procs for 1000 steps with 1282 atoms

#
#
#
next i
jump in_deposit2_CdTe.lammps loop
#
# Create depositing atom (placed randomly within the x-y plane, z distance is fixed to 45)
#
variable seed equal 12345
variable newx1 equal random(xlo,xhi,12345)
variable newy1 equal random(ylo,yhi,12345)
create_atoms 1 single 4.40805281552831 26.6621533893447 45.0
Created 1 atoms
variable newx2 equal random(xlo,xhi,12345)
variable newy2 equal random(ylo,yhi,12345)
create_atoms 2 single 11.9813135654758 14.234618365947 45.0
Created 1 atoms
# space for Clara :)
run 1000
Step Temp TotEng Press Lx Ly Lz Volume
26043    1023.6582   -2297.0204    179.24108    34.144351    34.144351    68.288702    79613.474
Averages over the last 6 of 12 rows, steps 26600 to 27043:
Temp TotEng Press Lx Ly Lz Volume
990.955 -2301.38 1340.64 34.1444 34.1444 68.2887 79613.5
Loop time of 18.28 on 1 procs for 1000 steps with 1284 atoms

#
#
#
next i
jump in_deposit2_CdTe.lammps loop
#
# Create depositing atom (placed randomly within the x-y plane, z distance is fixed to 45)
#
variable seed equal 12345
variable newx1 equal random(xlo,xhi,12345)
variable newy1 equal random(ylo,yhi,12345)
create_atoms 1 single 26.2621952317725 7.28191307758402 45.0
Created 1 atoms
variable newx2 equal random(xlo,xhi,12345)
variable newy2 equal random(ylo,yhi,12345)
create_atoms 2 single 25.1648990243881 21.8441111032307 45.0
Created 1 atoms
# space for Clara :)
run 1000
Step Temp TotEng Press Lx Ly Lz Volume
27043    970.35504   -2306.3954    1835.2766    34.144351    34.144351    68.288702    79613.474
Averages over the last 6 of 12 rows, steps 27600 to 28043:
Temp TotEng Press Lx Ly Lz Volume
993.126 -2293.85 1785.28 34.1444 34.1444 68.2887 79613.5
Loop time of 19.2525 on 1 procs for 1000 steps with 1286 atoms

#
#
#
next i
jump in_deposit2_CdTe.lammps loop
#
# Create depositing atom (placed randomly within the x-y plane, z distance is fixed to 45)
#
variable seed equal 12345
variable newx1 equal random(xlo,xhi,12345)
variable newy1 equal random(ylo,yhi,12345)
create_atoms 1 single 10.4675703187916 4.7378426610532 45.0
Created 1 atoms
variable newx2 equal random(xlo,xhi,12345)
variable newy2 equal random(ylo,yhi,12345)
create_atoms 2 single 7.87617424739834 18.6948527326352 45.0
Created 1 atoms
# space for Clara :)
run 1000
Step Temp TotEng Press Lx Ly Lz Volume
28043    989.36768   -2298.1367    1483.0375    34.144351    34.144351    68.288702    79613.474
Averages over the last 6 of 12 rows, steps 28600 to 29043:
Temp TotEng Press Lx Ly Lz Volume
988.27 -2293.64 1773.02 34.1444 34.1444 68.2887 79613.5
Loop time of 19.0146 on 1 procs for 1000 steps with 1288 atoms

#
#
#
next i
jump in_deposit2_CdTe.lammps loop
#
# Create depositing atom (placed randomly within the x-y plane, z distance is fixed to 45)
#
variable seed equal 12345
variable newx1 equal random(xlo,xhi,12345)
variable newy1 equal random(ylo,yhi,12345)
create_atoms 1 single 12.2017643378312 28.6361261133202 45.0
Created 1 atoms
variable newx2 equal random(xlo,xhi,12345)
variable newy2 equal random(ylo,yhi,12345)
create_atoms 2 single 30.0517277476181 25.7276884505544 45.0
Created 1 atoms
# space for Clara :)
run 1000
Step Temp TotEng Press Lx Ly Lz Volume
29043    981.52616   -2292.2958    1615.4155    34.144351    34.144351    68.288702    79613.474
Averages over the last 6 of 12 rows, steps 29600 to 30043:
Temp TotEng Press Lx Ly Lz Volume
1002.44 -2292.76 634.746 34.1444 34.1444 68.2887 79613.5
Loop time of 19.4019 on 1 procs for 1000 steps with 1290 atoms

#
#
#
next i
jump in_deposit2_CdTe.lammps loop
#
# Save state of simulation
#
write_restart deposited_state_1000K_2.restart
System init for write_restart ...
